Version 4
SHEET 1 2804 696
WIRE 416 -640 416 -656
WIRE 464 -640 416 -640
WIRE 336 -608 336 -640
WIRE 464 -608 464 -640
WIRE 608 -608 608 -640
WIRE 720 -608 720 -640
WIRE 832 -608 832 -640
WIRE 992 -608 992 -640
WIRE 1184 -608 1184 -640
WIRE 800 -432 656 -432
WIRE 1008 -432 864 -432
WIRE 1808 -352 1664 -352
WIRE 2016 -352 1872 -352
WIRE 32 -336 0 -336
WIRE 96 -336 32 -336
WIRE 576 -304 368 -304
WIRE 656 -304 656 -432
WIRE 656 -304 576 -304
WIRE 688 -304 656 -304
WIRE 96 -272 96 -336
WIRE 368 -272 368 -304
WIRE 1008 -256 1008 -432
WIRE 1008 -256 976 -256
WIRE 1104 -256 1008 -256
WIRE 1664 -224 1664 -352
WIRE 1664 -224 1376 -224
WIRE 1696 -224 1664 -224
WIRE 688 -208 624 -208
WIRE 1104 -192 1104 -256
WIRE 1376 -192 1376 -224
WIRE 2016 -176 2016 -352
WIRE 2016 -176 1984 -176
WIRE 2176 -176 2016 -176
WIRE 2224 -176 2176 -176
WIRE 96 -160 96 -192
WIRE 192 -160 96 -160
WIRE 368 -160 368 -192
WIRE 368 -160 256 -160
WIRE 2704 -144 2704 -176
WIRE 96 -128 96 -160
WIRE 368 -128 368 -160
WIRE 1696 -128 1632 -128
WIRE 2544 -128 2512 -128
WIRE 2608 -128 2544 -128
WIRE 2672 -128 2608 -128
WIRE 2768 -128 2736 -128
WIRE 2800 -128 2768 -128
WIRE 2704 -96 2704 -112
WIRE 1104 -80 1104 -112
WIRE 1200 -80 1104 -80
WIRE 1376 -80 1376 -112
WIRE 1376 -80 1264 -80
WIRE 2224 -80 2176 -80
WIRE 1104 -48 1104 -80
WIRE 1376 -48 1376 -80
WIRE 2352 0 2352 -48
WIRE 2480 112 2480 96
WIRE 96 128 96 -48
WIRE 1104 128 1104 32
WIRE 1104 128 96 128
WIRE 2384 128 1104 128
WIRE 2448 128 2384 128
WIRE 2544 128 2544 -128
WIRE 2544 128 2512 128
WIRE 2480 176 2480 144
FLAG 336 -608 0
FLAG 992 -608 0
FLAG 992 -720 phi1
FLAG 720 -608 0
FLAG 720 -720 Vdd
FLAG 832 -608 0
FLAG 832 -720 Vcm
FLAG 2176 -80 Vcm
FLAG 2352 -208 Vdd
FLAG 2352 0 phi1
FLAG 2608 -128 cmp
FLAG 2176 -176 Vint
FLAG 608 -608 0
FLAG 608 -720 Vref
FLAG 2480 96 Vref
FLAG 2480 176 0
FLAG 1632 -128 Vcm
FLAG 336 -720 Vin
FLAG 2384 128 Vfb
FLAG 1376 32 Vcm
FLAG 464 -608 0
FLAG 416 -704 Vdd
FLAG 464 -720 trip
FLAG 1056 -128 trip
FLAG 1056 16 trip
FLAG 1328 -128 trip
FLAG 1328 16 trip
FLAG 1056 -176 phi1
FLAG 1328 -32 phi1
FLAG 1056 -32 phi2
FLAG 1328 -176 phi2
FLAG 1184 -608 0
FLAG 1184 -720 phi2
FLAG 2768 -128 out
FLAG 2704 -96 0
FLAG 2704 -176 Vdd
FLAG 32 -336 Vin
FLAG 624 -208 Vcm
FLAG 576 -304 diff
FLAG 368 -48 Vcm
FLAG 48 -208 trip
FLAG 48 -64 trip
FLAG 320 -208 trip
FLAG 320 -64 trip
FLAG 48 -256 phi1
FLAG 320 -112 phi1
FLAG 48 -112 phi2
FLAG 320 -256 phi2
SYMBOL voltage 336 -736 R0
WINDOW 123 0 0 Left 0
WINDOW 39 0 0 Left 0
WINDOW 0 -96 20 Left 2
WINDOW 3 -209 104 Left 2
SYMATTR InstName Vin
SYMATTR Value SINE(1.5 0.8 200)
SYMBOL voltage 992 -736 R0
WINDOW 0 36 42 Left 2
WINDOW 3 -52 207 VLeft 2
WINDOW 123 0 0 Left 0
WINDOW 39 0 0 Left 0
SYMATTR InstName Vphi1
SYMATTR Value PULSE(0V 3V 0 1n 1n 490n 1u)
SYMBOL voltage 720 -736 R0
WINDOW 123 0 0 Left 0
WINDOW 39 0 0 Left 0
SYMATTR InstName VDD
SYMATTR Value 3
SYMBOL cap 1872 -368 R90
WINDOW 0 0 32 VBottom 2
WINDOW 3 32 32 VTop 2
SYMATTR InstName Cint2
SYMATTR Value 1.014p
SYMATTR SpiceLine ic=0V
SYMBOL voltage 832 -736 R0
WINDOW 123 0 0 Left 0
WINDOW 39 0 0 Left 0
SYMATTR InstName VCM
SYMATTR Value 1.5
SYMBOL Ideal_clocked_comparator 2272 -128 R0
SYMATTR InstName X4
SYMBOL voltage 608 -736 R0
WINDOW 123 0 0 Left 0
WINDOW 39 0 0 Left 0
SYMATTR InstName Vref
SYMATTR Value 3
SYMBOL INV 2512 160 M0
SYMATTR InstName X1
SYMBOL Ideal_op_amp 1744 -176 R0
SYMATTR InstName X2
SYMBOL sw 1104 -96 M180
WINDOW 3 24 -12 Left 0
WINDOW 38 39 37 Left 2
WINDOW 0 35 82 Left 2
SYMATTR Value ""
SYMATTR SpiceModel switch
SYMATTR InstName S1
SYMBOL cap 1264 -96 R90
WINDOW 0 0 32 VBottom 2
WINDOW 3 32 32 VTop 2
SYMATTR InstName C2
SYMATTR Value 338.12f
SYMBOL sw 1104 48 M180
WINDOW 3 24 -12 Left 0
WINDOW 38 39 37 Left 2
WINDOW 0 35 82 Left 2
SYMATTR Value ""
SYMATTR SpiceModel switch
SYMATTR InstName S2
SYMBOL sw 1376 -96 M180
WINDOW 3 24 -12 Left 0
WINDOW 38 39 37 Left 2
WINDOW 0 35 82 Left 2
SYMATTR Value ""
SYMATTR SpiceModel switch
SYMATTR InstName S3
SYMBOL sw 1376 48 M180
WINDOW 3 24 -12 Left 0
WINDOW 38 39 37 Left 2
WINDOW 0 35 82 Left 2
SYMATTR Value ""
SYMATTR SpiceModel switch
SYMATTR InstName S4
SYMBOL e 464 -736 R0
WINDOW 0 39 37 Left 2
WINDOW 3 38 79 Left 2
SYMATTR InstName Etrip
SYMATTR Value 0.5
SYMBOL voltage 1184 -736 R0
WINDOW 0 36 42 Left 2
WINDOW 3 -52 207 VLeft 2
WINDOW 123 0 0 Left 0
WINDOW 39 0 0 Left 0
SYMATTR InstName Vphi2
SYMATTR Value PULSE(0V 3V 500n 1n 1n 490n 1u)
SYMBOL INV 2672 -96 R0
SYMATTR InstName X3
SYMBOL cap 864 -448 R90
WINDOW 0 0 32 VBottom 2
WINDOW 3 32 32 VTop 2
SYMATTR InstName Cint1
SYMATTR Value 1.014p
SYMATTR SpiceLine ic=0V
SYMBOL Ideal_op_amp 736 -256 R0
SYMATTR InstName X5
SYMBOL sw 96 -176 M180
WINDOW 3 24 -12 Left 0
WINDOW 38 39 37 Left 2
WINDOW 0 35 82 Left 2
SYMATTR Value ""
SYMATTR SpiceModel switch
SYMATTR InstName S5
SYMBOL cap 256 -176 R90
WINDOW 0 0 32 VBottom 2
WINDOW 3 32 32 VTop 2
SYMATTR InstName C1
SYMATTR Value 84.53f
SYMBOL sw 96 -32 M180
WINDOW 3 24 -12 Left 0
WINDOW 38 39 37 Left 2
WINDOW 0 35 82 Left 2
SYMATTR Value ""
SYMATTR SpiceModel switch
SYMATTR InstName S6
SYMBOL sw 368 -176 M180
WINDOW 3 24 -12 Left 0
WINDOW 38 39 37 Left 2
WINDOW 0 35 82 Left 2
SYMATTR Value ""
SYMATTR SpiceModel switch
SYMATTR InstName S7
SYMBOL sw 368 -32 M180
WINDOW 3 24 -12 Left 0
WINDOW 38 39 37 Left 2
WINDOW 0 35 82 Left 2
SYMATTR Value ""
SYMATTR SpiceModel switch
SYMATTR InstName S8
TEXT 1344 -728 Left 2 !.tran 0 5m 0 10u
TEXT 1344 -760 Left 2 !.options plotwinsize=0
TEXT 1344 -696 Left 2 !.model switch sw ron=.1
